
 ANSYS Academic Teaching Introductory              


 *------------------------------------------------------------------*
 |                                                                  |
 |   W E L C O M E   T O   T H E   A N S Y S (R)  P R O G R A M     |
 |                                                                  |
 *------------------------------------------------------------------*




 ***************************************************************
 *            ANSYS 2019 R2          LEGAL NOTICES             *
 ***************************************************************
 *                                                             *
 * Copyright 1971-2019 ANSYS, Inc.  All rights reserved.       *
 * Unauthorized use, distribution or duplication is            *
 * prohibited.                                                 *
 *                                                             *
 * Ansys is a registered trademark of ANSYS, Inc. or its       *
 * subsidiaries in the United States or other countries.       *
 * See the ANSYS, Inc. online documentation or the ANSYS, Inc. *
 * documentation CD or online help for the complete Legal      *
 * Notice.                                                     *
 *                                                             *
 ***************************************************************
 *                                                             *
 * THIS ANSYS SOFTWARE PRODUCT AND PROGRAM DOCUMENTATION       *
 * INCLUDE TRADE SECRETS AND CONFIDENTIAL AND PROPRIETARY      *
 * PRODUCTS OF ANSYS, INC., ITS SUBSIDIARIES, OR LICENSORS.    *
 * The software products and documentation are furnished by    *
 * ANSYS, Inc. or its subsidiaries under a software license    *
 * agreement that contains provisions concerning               *
 * non-disclosure, copying, length and nature of use,          *
 * compliance with exporting laws, warranties, disclaimers,    *
 * limitations of liability, and remedies, and other           *
 * provisions.  The software products and documentation may be *
 * used, disclosed, transferred, or copied only in accordance  *
 * with the terms and conditions of that software license      *
 * agreement.                                                  *
 *                                                             *
 * ANSYS, Inc. is a UL registered                              *
 * ISO 9001:2015 company.                                      *
 *                                                             *
 ***************************************************************
 *                                                             *
 * This product is subject to U.S. laws governing export and   *
 * re-export.                                                  *
 *                                                             *
 * For U.S. Government users, except as specifically granted   *
 * by the ANSYS, Inc. software license agreement, the use,     *
 * duplication, or disclosure by the United States Government  *
 * is subject to restrictions stated in the ANSYS, Inc.        *
 * software license agreement and FAR 12.212 (for non-DOD      *
 * licenses).                                                  *
 *                                                             *
 ***************************************************************

 2019 R2 
     
 Point Releases and Patches installed:   
     
 Academic Student 2019 R2
 FENSAP-ICE 2019 R2  


          *****  ANSYS COMMAND LINE ARGUMENTS  *****
  INITIAL JOBNAME              = 191124                                                                                                                                                                                                                                                  
  DISTRIBUTED MEMORY PARALLEL REQUESTED
       2 PARALLEL PROCESSES REQUESTED WITH SINGLE THREAD PER PROCESS
    TOTAL OF     2 CORES REQUESTED
  MPI OPTION                   = INTELMPI
  START-UP FILE MODE           = READ  
  STOP FILE MODE               = READ  
  GRAPHICS DEVICE REQUESTED    = win32   
  GRAPHICAL ENTRY              = YES   
  LANGUAGE                     = en-us               
  INITIAL DIRECTORY = C:\Users\Owner\ANSYS\191124

 RELEASE= 2019 R2              BUILD= 19.4      UP20190416   VERSION=WINDOWS x64 
 CURRENT JOBNAME=191124_1  00:21:24  NOV 24, 2019 CP=      0.172


 CLEAR ANSYS DATABASE AND RESTART

 ANSYS Academic Teaching Introductory              

 CLEAR ANSYS DATABASE AND RESTART

 ANSYS Academic Teaching Introductory              

 PRINTOUT RESUMED BY /GOP

 PRINTOUT RESUMED BY /GOP

 PRINTOUT RESUMED BY /GOP

 PRINTOUT RESUMED BY /GOP

 PRINTOUT RESUMED BY /GOP

 PRINTOUT RESUMED BY /GOP

 PRINTOUT RESUMED BY /GOP

 PRINTOUT RESUMED BY /GOP

 CLEAR ANSYS DATABASE AND RESTART

 ANSYS Academic Teaching Introductory              

 PRINTOUT RESUMED BY /GOP

 PRINTOUT RESUMED BY /GOP

 PRINTOUT RESUMED BY /GOP

 PRINTOUT RESUMED BY /GOP

 PRINTOUT RESUMED BY /GOP

 PRINTOUT RESUMED BY /GOP

 PRINTOUT RESUMED BY /GOP

 PRINTOUT RESUMED BY /GOP


 NUMBER OF WARNING MESSAGES ENCOUNTERED=          0
 NUMBER OF ERROR   MESSAGES ENCOUNTERED=          0


 *---------------------------------------------------------------------------*
 |                                                                           |
 |                       DISTRIBUTED ANSYS RUN COMPLETED                     |
 |                                                                           |
 |---------------------------------------------------------------------------|
 |                                                                           |
 | Ansys 2019 R2               Build 19.4         UP20190416     WINDOWS x64 |
 |                                                                           |
 |---------------------------------------------------------------------------|
 |                                                                           |
 | Database Requested(-db)     1 MB    Scratch Memory Requested      1024 MB |
 | Maximum Database Used       1 MB    Maximum Scratch Memory Used      4 MB |
 |                                                                           |
 |---------------------------------------------------------------------------|
 |                                                                           |
 |        CP Time      (sec) =          1.766       Time  =  03:21:09        |
 |        Elapsed Time (sec) =      10788.000       Date  =  11/24/2019      |
 |                                                                           |
 *---------------------------------------------------------------------------*
